Version 4
SHEET 1 880 680
WIRE -16 -288 -240 -288
WIRE 160 -288 64 -288
WIRE 336 -288 160 -288
WIRE -560 -64 -704 -64
WIRE -368 -64 -416 -64
WIRE 336 -64 336 -144
WIRE 336 -64 256 -64
WIRE -288 -48 -288 -64
WIRE 0 -48 -288 -48
WIRE -560 -32 -848 -32
WIRE -368 -32 -416 -32
WIRE -288 -32 -288 -48
WIRE 336 -32 256 -32
WIRE -704 0 -704 -64
WIRE -704 0 -736 0
WIRE -560 0 -704 0
WIRE -368 0 -416 0
WIRE 336 48 336 -32
WIRE -368 96 -368 0
WIRE -736 128 -736 0
FLAG 336 48 0
FLAG -736 208 0
FLAG 160 -224 0
FLAG -240 -208 0
FLAG -848 -32 0
FLAG -368 96 0
SYMBOL AutoGenerated\\EPC2001 128 -48 R0
SYMATTR InstName U1
SYMBOL voltage -736 112 R0
WINDOW 123 0 0 Left 0
WINDOW 39 0 0 Left 0
WINDOW 0 29 26 Left 2
SYMATTR InstName V1
SYMATTR Value PULSE(0 5 1m 0.1u 0.1u 1u 1 2)
SYMBOL diode 320 -208 R0
SYMATTR InstName D1
SYMBOL cap 144 -288 R0
SYMATTR InstName C1
SYMATTR Value 100n
SYMBOL res 80 -304 R90
WINDOW 0 0 56 VBottom 2
WINDOW 3 32 56 VTop 2
SYMATTR InstName R1
SYMATTR Value 5k
SYMBOL voltage -240 -304 R0
WINDOW 123 0 0 Left 0
WINDOW 39 0 0 Left 0
SYMATTR InstName V2
SYMATTR Value 50
SYMBOL ind 320 -304 R0
SYMATTR InstName L1
SYMATTR Value 0.15µ
SYMBOL AutoGenerated\\LMG1020 -496 -32 R0
SYMATTR InstName U2
SYMBOL res -272 -80 R90
WINDOW 0 0 56 VBottom 2
WINDOW 3 32 56 VTop 2
SYMATTR InstName R2
SYMATTR Value 2
SYMBOL res -272 -48 R90
WINDOW 0 0 56 VBottom 2
WINDOW 3 32 56 VTop 2
SYMATTR InstName R3
SYMATTR Value 2
TEXT -768 248 Left 2 !.tran 0 0.05 0 0.01
